2021-12-31 12:53:19: case.setup starting 
 ---------------------------------------------------
2021-12-31 12:53:19: case.setup error 
ERROR: inputdata root is not a directory or is not readable: $/public/home/chengxl/cesm/data_input
 ---------------------------------------------------
