2021-12-31 12:30:34: xmlchange success <command> ./xmlchange --force CLM_BLDNML_OPTS=-fire_emis --append  </command>
 ---------------------------------------------------
2021-12-31 12:30:35: xmlchange success <command> ./xmlchange --force BFBFLAG=TRUE  </command>
 ---------------------------------------------------
2021-12-31 12:30:37: case.setup starting 
 ---------------------------------------------------
2021-12-31 12:30:37: case.setup error 
ERROR: inputdata root is not a directory or is not readable: ${HOME}/cesm/inputdata
 ---------------------------------------------------
