2021-12-31 12:37:14: case.setup starting 
 ---------------------------------------------------
2021-12-31 12:37:14: case.setup error 
ERROR: inputdata root is not a directory or is not readable: ${HOME}/cesm/data_input
 ---------------------------------------------------
