2021-12-31 12:30:01: xmlchange success <command> ./xmlchange --force RUN_STARTDATE=2000-01-01  </command>
 ---------------------------------------------------
2021-12-31 12:30:02: xmlchange success <command> ./xmlchange --force CAM_CONFIG_OPTS=-phys cam6 -offline_dyn -nlev 32  </command>
 ---------------------------------------------------
2021-12-31 12:30:03: xmlchange success <command> ./xmlchange --force ROF_NCPL=$ATM_NCPL  </command>
 ---------------------------------------------------
2021-12-31 12:30:03: xmlchange success <command> ./xmlchange --force GLC_NCPL=$ATM_NCPL  </command>
 ---------------------------------------------------
2021-12-31 12:30:09: case.setup starting 
 ---------------------------------------------------
2021-12-31 12:30:09: case.setup error 
ERROR: inputdata root is not a directory or is not readable: ${HOME}/cesm/inputdata
 ---------------------------------------------------
