2021-12-31 12:36:49: xmlchange success <command> ./xmlchange --force NTASKS_OCN=144  </command>
 ---------------------------------------------------
2021-12-31 12:36:54: case.setup starting 
 ---------------------------------------------------
2021-12-31 12:36:54: case.setup error 
ERROR: inputdata root is not a directory or is not readable: ${HOME}/cesm/data_input
 ---------------------------------------------------
