2022-12-10 06:16:29: case.setup starting 
 ---------------------------------------------------
2022-12-10 06:16:31: case.setup success 
 ---------------------------------------------------
2022-12-10 06:16:32: xmlchange success <command> ./xmlchange NTASKS=64  </command>
 ---------------------------------------------------
2022-12-10 06:16:32: setup.clean starting 
 ---------------------------------------------------
2022-12-10 06:16:32: setup.clean success 
 ---------------------------------------------------
2022-12-10 06:16:33: case.setup starting 
 ---------------------------------------------------
2022-12-10 06:16:33: build.clean starting 
 ---------------------------------------------------
2022-12-10 06:17:19: build.clean success 
 ---------------------------------------------------
2022-12-10 06:17:21: case.setup success 
 ---------------------------------------------------
2022-12-10 06:17:21: case.build starting 
 ---------------------------------------------------
2022-12-10 06:30:17: case.build error 
ERROR: BUILD FAIL: cam.buildlib failed, cat /data/chengxl/cesm/cimeoutput/FHIST_test/bld/atm.bldlog.221210-061721
 ---------------------------------------------------
2022-12-10 06:30:17: case.build starting 
 ---------------------------------------------------
2022-12-10 06:31:13: case.build error 
ERROR: BUILD FAIL: cam.buildlib failed, cat /data/chengxl/cesm/cimeoutput/FHIST_test/bld/atm.bldlog.221210-063018
 ---------------------------------------------------
