2021-12-31 12:52:38: xmlchange success <command> ./xmlchange --force GLC_AVG_PERIOD=glc_coupling_period  </command>
 ---------------------------------------------------
2021-12-31 12:52:40: case.setup starting 
 ---------------------------------------------------
2021-12-31 12:52:40: case.setup error 
ERROR: inputdata root is not a directory or is not readable: $/public/home/chengxl/cesm/data_input
 ---------------------------------------------------
