2021-12-31 12:44:03: xmlchange success <command> ./xmlchange --force NTASKS_OCN=144  </command>
 ---------------------------------------------------
2021-12-31 12:44:08: case.setup starting 
 ---------------------------------------------------
2021-12-31 12:44:08: case.setup error 
ERROR: inputdata root is not a directory or is not readable: ${HOME}/cesm/data_input
 ---------------------------------------------------
