2021-12-31 12:33:41: xmlchange success <command> ./xmlchange --force CLM_BLDNML_OPTS=-fire_emis --append  </command>
 ---------------------------------------------------
2021-12-31 12:33:42: xmlchange success <command> ./xmlchange --force BFBFLAG=TRUE  </command>
 ---------------------------------------------------
2021-12-31 12:33:49: case.setup starting 
 ---------------------------------------------------
2021-12-31 12:33:49: case.setup error 
ERROR: inputdata root is not a directory or is not readable: ${HOME}/cesm/inputdata
 ---------------------------------------------------
