2021-12-31 12:52:24: xmlchange success <command> ./xmlchange --force CLM_NAMELIST_OPTS=   </command>
 ---------------------------------------------------
2021-12-31 12:52:29: case.setup starting 
 ---------------------------------------------------
2021-12-31 12:52:29: case.setup error 
ERROR: inputdata root is not a directory or is not readable: $/public/home/chengxl/cesm/data_input
 ---------------------------------------------------
