2021-12-31 12:30:26: xmlchange success <command> ./xmlchange --force CLM_BLDNML_OPTS=-fire_emis --append  </command>
 ---------------------------------------------------
2021-12-31 12:30:27: xmlchange success <command> ./xmlchange --force BFBFLAG=TRUE  </command>
 ---------------------------------------------------
2021-12-31 12:30:33: case.setup starting 
 ---------------------------------------------------
2021-12-31 12:30:33: case.setup error 
ERROR: inputdata root is not a directory or is not readable: ${HOME}/cesm/inputdata
 ---------------------------------------------------
