2021-12-31 12:53:47: xmlchange success <command> ./xmlchange --force POP_TAVG_R8=TRUE  </command>
 ---------------------------------------------------
2021-12-31 12:53:47: xmlchange success <command> ./xmlchange --force --force POP_AUTO_DECOMP=FALSE  </command>
 ---------------------------------------------------
2021-12-31 12:53:48: xmlchange success <command> ./xmlchange --force --force POP_DECOMPTYPE=spacecurve  </command>
 ---------------------------------------------------
2021-12-31 12:53:49: xmlchange success <command> ./xmlchange --force --force POP_BLCKX=12,POP_BLCKY=14,POP_NX_BLOCKS=9,POP_NY_BLOCKS=9  </command>
 ---------------------------------------------------
2021-12-31 12:53:49: xmlchange success <command> ./xmlchange --force --force POP_MXBLCKS=5  </command>
 ---------------------------------------------------
2021-12-31 12:53:52: case.setup starting 
 ---------------------------------------------------
2021-12-31 12:53:52: case.setup error 
ERROR: inputdata root is not a directory or is not readable: $/public/home/chengxl/cesm/data_input
 ---------------------------------------------------
