2022-03-13 16:36:33: case.setup starting 
 ---------------------------------------------------
2022-03-13 16:36:36: case.setup success 
 ---------------------------------------------------
2022-03-13 16:36:37: xmlchange success <command> ./xmlchange NTASKS=64  </command>
 ---------------------------------------------------
2022-03-13 16:36:37: setup.clean starting 
 ---------------------------------------------------
2022-03-13 16:36:37: setup.clean success 
 ---------------------------------------------------
2022-03-13 16:36:38: case.setup starting 
 ---------------------------------------------------
2022-03-13 16:36:39: build.clean starting 
 ---------------------------------------------------
2022-03-13 16:38:04: build.clean success 
 ---------------------------------------------------
2022-03-13 16:38:07: case.setup success 
 ---------------------------------------------------
2022-03-13 16:38:08: case.build starting 
 ---------------------------------------------------
2022-03-13 16:52:51: case.build success 
 ---------------------------------------------------
2022-03-13 16:52:53: case.build starting 
 ---------------------------------------------------
2022-03-13 16:53:58: case.build success 
 ---------------------------------------------------
2022-03-14 16:19:13: case.build starting 
 ---------------------------------------------------
2022-03-14 16:20:10: case.build error 
ERROR: BUILD FAIL: cam.buildlib failed, cat /data/chengxl/cesm/cimeoutput/FHIST_SH/bld/atm.bldlog.220314-161913
 ---------------------------------------------------
2022-03-14 17:50:02: case.build starting 
 ---------------------------------------------------
2022-03-14 17:51:42: case.build error 
ERROR: Error gathering provenance information from manage_externals.

manage_externals error message:
    ERROR:root:SVN returned invalid XML message svn: /public/software/apps/anaconda3/5.3.0/lib/libuuid.so.1: no version information available (required by /lib64/libapr-1.so.0)
    <?xml version="1.0" encoding="UTF-8"?>
    <status>
    <target
       path="/public/home/chengxl/cesm/components/cam/chem_proc">
    </target>
    </status>

manage_externals output:
    Processing externals description file : Externals.cfg
    Processing externals description file : Externals_CAM.cfg
    Processing externals description file : Externals_CISM.cfg
    Processing externals description file : Externals_CLM.cfg
    Processing externals description file : Externals_POP.cfg
    Checking status of externals: cam, chem_proc, 
    ERROR: SVN returned invalid XML message svn: /public/software/apps/anaconda3/5.3.0/lib/libuuid.so.1: no version information available (required by /lib64/libapr-1.so.0)
    <?xml version="1.0" encoding="UTF-8"?>
    <status>
    <target
       path="/public/home/chengxl/cesm/components/cam/chem_proc">
    </target>
    </status>

To solve this, either:

(1) Find and fix the problem: From /public/home/chengxl/cesm, try to get this command to work:
    manage_externals/checkout_externals --status --verbose --no-logging

(2) If you don't need provenance information, rebuild with --skip-provenance-check

 ---------------------------------------------------
2022-03-14 17:59:36: case.build starting 
 ---------------------------------------------------
2022-03-14 18:00:28: case.build success 
 ---------------------------------------------------
2022-03-14 22:02:25: case.build starting 
 ---------------------------------------------------
2022-03-14 22:04:00: case.build success 
 ---------------------------------------------------
2022-03-21 16:49:12: case.build starting 
 ---------------------------------------------------
2022-03-21 16:50:51: case.build error 
ERROR: BUILD FAIL: cam.buildlib failed, cat /data/chengxl/cesm/cimeoutput/FHIST_SH/bld/atm.bldlog.220321-164912
 ---------------------------------------------------
2022-03-21 16:55:08: case.build starting 
 ---------------------------------------------------
2022-03-21 16:56:10: case.build error 
ERROR: BUILD FAIL: cam.buildlib failed, cat /data/chengxl/cesm/cimeoutput/FHIST_SH/bld/atm.bldlog.220321-165508
 ---------------------------------------------------
2022-03-21 16:57:50: case.build starting 
 ---------------------------------------------------
2022-03-21 17:00:21: case.build success 
 ---------------------------------------------------
2022-03-21 18:15:29: case.build starting 
 ---------------------------------------------------
2022-03-21 18:16:32: case.build error 
ERROR: BUILD FAIL: cam.buildlib failed, cat /data/chengxl/cesm/cimeoutput/FHIST_SH/bld/atm.bldlog.220321-181529
 ---------------------------------------------------
2022-03-21 18:21:48: case.build starting 
 ---------------------------------------------------
2022-03-21 18:23:45: case.build success 
 ---------------------------------------------------
2022-03-21 18:24:14: case.build starting 
 ---------------------------------------------------
2022-03-21 18:25:15: case.build error 
ERROR: BUILD FAIL: cam.buildlib failed, cat /data/chengxl/cesm/cimeoutput/FHIST_SH/bld/atm.bldlog.220321-182414
 ---------------------------------------------------
2022-03-21 18:27:13: case.build starting 
 ---------------------------------------------------
2022-03-21 18:28:14: case.build error 
ERROR: BUILD FAIL: cam.buildlib failed, cat /data/chengxl/cesm/cimeoutput/FHIST_SH/bld/atm.bldlog.220321-182713
 ---------------------------------------------------
2022-03-21 18:31:18: case.build starting 
 ---------------------------------------------------
2022-03-21 18:32:42: case.build error 
ERROR: BUILD FAIL: buildexe failed, cat /data/chengxl/cesm/cimeoutput/FHIST_SH/bld/cesm.bldlog.220321-183118
 ---------------------------------------------------
2022-03-21 18:40:51: case.build starting 
 ---------------------------------------------------
2022-03-21 18:42:16: case.build error 
ERROR: BUILD FAIL: buildexe failed, cat /data/chengxl/cesm/cimeoutput/FHIST_SH/bld/cesm.bldlog.220321-184051
 ---------------------------------------------------
2022-03-21 18:44:10: case.build starting 
 ---------------------------------------------------
2022-03-21 18:45:12: case.build error 
ERROR: BUILD FAIL: cam.buildlib failed, cat /data/chengxl/cesm/cimeoutput/FHIST_SH/bld/atm.bldlog.220321-184410
 ---------------------------------------------------
2022-03-21 18:55:49: case.build starting 
 ---------------------------------------------------
2022-03-21 18:57:06: case.build error 
ERROR: BUILD FAIL: cam.buildlib failed, cat /data/chengxl/cesm/cimeoutput/FHIST_SH/bld/atm.bldlog.220321-185550
 ---------------------------------------------------
2022-03-21 19:06:51: case.build starting 
 ---------------------------------------------------
2022-03-21 19:07:55: case.build error 
ERROR: BUILD FAIL: cam.buildlib failed, cat /data/chengxl/cesm/cimeoutput/FHIST_SH/bld/atm.bldlog.220321-190651
 ---------------------------------------------------
2022-03-21 22:28:45: case.build starting 
 ---------------------------------------------------
2022-03-21 22:29:46: case.build error 
ERROR: BUILD FAIL: cam.buildlib failed, cat /data/chengxl/cesm/cimeoutput/FHIST_SH/bld/atm.bldlog.220321-222846
 ---------------------------------------------------
2022-03-21 22:50:24: case.build starting 
 ---------------------------------------------------
2022-03-21 22:51:22: case.build error 
ERROR: BUILD FAIL: cam.buildlib failed, cat /data/chengxl/cesm/cimeoutput/FHIST_SH/bld/atm.bldlog.220321-225024
 ---------------------------------------------------
2022-03-21 22:54:57: case.build starting 
 ---------------------------------------------------
2022-03-21 22:55:53: case.build error 
ERROR: BUILD FAIL: cam.buildlib failed, cat /data/chengxl/cesm/cimeoutput/FHIST_SH/bld/atm.bldlog.220321-225457
 ---------------------------------------------------
2022-03-21 23:00:33: case.build starting 
 ---------------------------------------------------
2022-03-21 23:01:32: case.build error 
ERROR: BUILD FAIL: cam.buildlib failed, cat /data/chengxl/cesm/cimeoutput/FHIST_SH/bld/atm.bldlog.220321-230033
 ---------------------------------------------------
2022-03-21 23:02:54: case.build starting 
 ---------------------------------------------------
2022-03-21 23:04:47: case.build success 
 ---------------------------------------------------
2022-03-22 11:49:51: case.build starting 
 ---------------------------------------------------
2022-03-22 11:52:02: case.build error 
ERROR: BUILD FAIL: buildexe failed, cat /data/chengxl/cesm/cimeoutput/FHIST_SH/bld/cesm.bldlog.220322-114952
 ---------------------------------------------------
2022-03-22 11:55:06: case.build starting 
 ---------------------------------------------------
2022-03-22 11:56:05: case.build error 
ERROR: BUILD FAIL: cam.buildlib failed, cat /data/chengxl/cesm/cimeoutput/FHIST_SH/bld/atm.bldlog.220322-115506
 ---------------------------------------------------
2022-03-22 11:59:17: case.build starting 
 ---------------------------------------------------
2022-03-22 12:01:07: case.build success 
 ---------------------------------------------------
2022-03-22 12:18:01: case.build starting 
 ---------------------------------------------------
2022-03-22 12:20:05: case.build success 
 ---------------------------------------------------
2022-03-22 12:35:40: case.build starting 
 ---------------------------------------------------
2022-03-22 12:37:34: case.build success 
 ---------------------------------------------------
2022-03-23 14:33:54: case.build starting 
 ---------------------------------------------------
2022-03-23 14:36:11: case.build success 
 ---------------------------------------------------
2022-03-23 15:50:21: case.build starting 
 ---------------------------------------------------
2022-03-23 15:52:52: case.build success 
 ---------------------------------------------------
2022-03-23 15:59:47: case.build starting 
 ---------------------------------------------------
2022-03-23 16:01:00: case.build success 
 ---------------------------------------------------
2022-03-23 16:08:33: case.build starting 
 ---------------------------------------------------
2022-03-23 16:09:42: case.build success 
 ---------------------------------------------------
2022-03-26 16:53:30: case.build starting 
 ---------------------------------------------------
2022-03-26 16:54:32: case.build error 
ERROR: BUILD FAIL: cam.buildlib failed, cat /data/chengxl/cesm/cimeoutput/FHIST_SH/bld/atm.bldlog.220326-165331
 ---------------------------------------------------
2022-03-26 16:57:51: case.build starting 
 ---------------------------------------------------
2022-03-26 16:58:33: case.build error 
ERROR: BUILD FAIL: cam.buildlib failed, cat /data/chengxl/cesm/cimeoutput/FHIST_SH/bld/atm.bldlog.220326-165751
 ---------------------------------------------------
2022-03-26 17:01:30: case.build starting 
 ---------------------------------------------------
2022-03-26 17:02:16: case.build error 
ERROR: BUILD FAIL: cam.buildlib failed, cat /data/chengxl/cesm/cimeoutput/FHIST_SH/bld/atm.bldlog.220326-170130
 ---------------------------------------------------
2022-03-26 17:41:43: case.build starting 
 ---------------------------------------------------
2022-03-26 17:42:25: case.build error 
ERROR: BUILD FAIL: cam.buildlib failed, cat /data/chengxl/cesm/cimeoutput/FHIST_SH/bld/atm.bldlog.220326-174143
 ---------------------------------------------------
2022-03-26 18:37:00: case.build starting 
 ---------------------------------------------------
2022-03-26 18:37:56: case.build error 
ERROR: BUILD FAIL: cam.buildlib failed, cat /data/chengxl/cesm/cimeoutput/FHIST_SH/bld/atm.bldlog.220326-183700
 ---------------------------------------------------
2022-03-26 18:41:32: case.build starting 
 ---------------------------------------------------
2022-03-26 18:43:46: case.build success 
 ---------------------------------------------------
2022-03-26 21:02:52: case.build starting 
 ---------------------------------------------------
2022-03-26 21:05:12: case.build success 
 ---------------------------------------------------
2022-03-26 21:41:01: case.build starting 
 ---------------------------------------------------
2022-03-26 21:43:14: case.build success 
 ---------------------------------------------------
2022-03-28 17:49:28: case.build starting 
 ---------------------------------------------------
2022-03-28 17:50:44: case.build error 
ERROR: BUILD FAIL: cam.buildlib failed, cat /data/chengxl/cesm/cimeoutput/FHIST_SH/bld/atm.bldlog.220328-174929
 ---------------------------------------------------
2022-03-28 17:54:52: case.build starting 
 ---------------------------------------------------
2022-03-28 17:55:46: case.build error 
ERROR: BUILD FAIL: cam.buildlib failed, cat /data/chengxl/cesm/cimeoutput/FHIST_SH/bld/atm.bldlog.220328-175453
 ---------------------------------------------------
2022-03-28 17:59:45: case.build starting 
 ---------------------------------------------------
2022-03-28 18:00:41: case.build error 
ERROR: BUILD FAIL: cam.buildlib failed, cat /data/chengxl/cesm/cimeoutput/FHIST_SH/bld/atm.bldlog.220328-175946
 ---------------------------------------------------
2022-03-28 18:04:12: case.build starting 
 ---------------------------------------------------
2022-03-28 18:05:05: case.build error 
ERROR: BUILD FAIL: cam.buildlib failed, cat /data/chengxl/cesm/cimeoutput/FHIST_SH/bld/atm.bldlog.220328-180412
 ---------------------------------------------------
2022-03-28 18:16:47: case.build starting 
 ---------------------------------------------------
2022-03-28 18:17:43: case.build error 
ERROR: BUILD FAIL: cam.buildlib failed, cat /data/chengxl/cesm/cimeoutput/FHIST_SH/bld/atm.bldlog.220328-181648
 ---------------------------------------------------
2022-03-28 18:20:18: case.build starting 
 ---------------------------------------------------
2022-03-28 18:21:15: case.build error 
ERROR: BUILD FAIL: cam.buildlib failed, cat /data/chengxl/cesm/cimeoutput/FHIST_SH/bld/atm.bldlog.220328-182018
 ---------------------------------------------------
2022-03-28 18:24:50: case.build starting 
 ---------------------------------------------------
2022-03-28 18:25:47: case.build error 
ERROR: BUILD FAIL: cam.buildlib failed, cat /data/chengxl/cesm/cimeoutput/FHIST_SH/bld/atm.bldlog.220328-182450
 ---------------------------------------------------
2022-03-28 18:26:22: case.build starting 
 ---------------------------------------------------
2022-03-28 18:28:24: case.build success 
 ---------------------------------------------------
2022-03-29 17:02:39: case.build starting 
 ---------------------------------------------------
2022-03-29 17:03:40: case.build error 
ERROR: BUILD FAIL: cam.buildlib failed, cat /data/chengxl/cesm/cimeoutput/FHIST_SH/bld/atm.bldlog.220329-170239
 ---------------------------------------------------
2022-03-29 17:04:39: case.build starting 
 ---------------------------------------------------
2022-03-29 17:05:34: case.build error 
ERROR: BUILD FAIL: cam.buildlib failed, cat /data/chengxl/cesm/cimeoutput/FHIST_SH/bld/atm.bldlog.220329-170440
 ---------------------------------------------------
2022-03-29 17:09:05: case.build starting 
 ---------------------------------------------------
2022-03-29 17:09:59: case.build error 
ERROR: BUILD FAIL: cam.buildlib failed, cat /data/chengxl/cesm/cimeoutput/FHIST_SH/bld/atm.bldlog.220329-170905
 ---------------------------------------------------
2022-03-29 17:21:22: case.build starting 
 ---------------------------------------------------
2022-03-29 17:22:17: case.build error 
ERROR: BUILD FAIL: cam.buildlib failed, cat /data/chengxl/cesm/cimeoutput/FHIST_SH/bld/atm.bldlog.220329-172123
 ---------------------------------------------------
2022-03-29 17:23:59: case.build starting 
 ---------------------------------------------------
2022-03-29 17:24:54: case.build error 
ERROR: BUILD FAIL: cam.buildlib failed, cat /data/chengxl/cesm/cimeoutput/FHIST_SH/bld/atm.bldlog.220329-172359
 ---------------------------------------------------
2022-03-29 17:28:16: case.build starting 
 ---------------------------------------------------
2022-03-29 17:29:13: case.build error 
ERROR: BUILD FAIL: cam.buildlib failed, cat /data/chengxl/cesm/cimeoutput/FHIST_SH/bld/atm.bldlog.220329-172817
 ---------------------------------------------------
2022-03-29 17:36:13: case.build starting 
 ---------------------------------------------------
2022-03-29 17:37:09: case.build error 
ERROR: BUILD FAIL: cam.buildlib failed, cat /data/chengxl/cesm/cimeoutput/FHIST_SH/bld/atm.bldlog.220329-173613
 ---------------------------------------------------
2022-03-29 17:38:39: case.build starting 
 ---------------------------------------------------
2022-03-29 17:39:37: case.build error 
ERROR: BUILD FAIL: cam.buildlib failed, cat /data/chengxl/cesm/cimeoutput/FHIST_SH/bld/atm.bldlog.220329-173840
 ---------------------------------------------------
2022-03-29 17:40:21: case.build starting 
 ---------------------------------------------------
2022-03-29 17:41:16: case.build error 
ERROR: BUILD FAIL: cam.buildlib failed, cat /data/chengxl/cesm/cimeoutput/FHIST_SH/bld/atm.bldlog.220329-174021
 ---------------------------------------------------
2022-03-29 17:41:53: case.build starting 
 ---------------------------------------------------
2022-03-29 17:42:47: case.build error 
ERROR: BUILD FAIL: cam.buildlib failed, cat /data/chengxl/cesm/cimeoutput/FHIST_SH/bld/atm.bldlog.220329-174153
 ---------------------------------------------------
2022-03-29 17:43:07: case.build starting 
 ---------------------------------------------------
2022-03-29 17:45:05: case.build success 
 ---------------------------------------------------
2022-03-29 18:07:05: case.build starting 
 ---------------------------------------------------
2022-03-29 18:08:36: case.build success 
 ---------------------------------------------------
2022-03-29 18:10:11: case.build starting 
 ---------------------------------------------------
2022-03-29 18:11:44: case.build success 
 ---------------------------------------------------
2022-03-29 20:27:25: case.build starting 
 ---------------------------------------------------
2022-03-29 20:28:23: case.build error 
ERROR: BUILD FAIL: cam.buildlib failed, cat /data/chengxl/cesm/cimeoutput/FHIST_SH/bld/atm.bldlog.220329-202726
 ---------------------------------------------------
2022-03-29 20:29:09: case.build starting 
 ---------------------------------------------------
2022-03-29 20:30:05: case.build error 
ERROR: BUILD FAIL: cam.buildlib failed, cat /data/chengxl/cesm/cimeoutput/FHIST_SH/bld/atm.bldlog.220329-202910
 ---------------------------------------------------
2022-03-29 20:32:11: case.build starting 
 ---------------------------------------------------
2022-03-29 20:33:32: case.build success 
 ---------------------------------------------------
2022-03-30 11:29:30: case.build starting 
 ---------------------------------------------------
2022-03-30 11:31:33: case.build success 
 ---------------------------------------------------
2022-04-06 15:26:36: case.build starting 
 ---------------------------------------------------
2022-04-06 15:29:08: case.build success 
 ---------------------------------------------------
2022-04-06 15:47:54: case.build starting 
 ---------------------------------------------------
2022-04-06 15:50:12: case.build success 
 ---------------------------------------------------
2022-04-06 16:01:19: case.build starting 
 ---------------------------------------------------
2022-04-06 16:03:19: case.build success 
 ---------------------------------------------------
2022-04-06 16:35:18: case.build starting 
 ---------------------------------------------------
2022-04-06 16:37:22: case.build success 
 ---------------------------------------------------
2022-04-06 20:53:51: case.build starting 
 ---------------------------------------------------
2022-04-06 20:56:00: case.build success 
 ---------------------------------------------------
2022-04-06 23:38:17: case.build starting 
 ---------------------------------------------------
2022-04-06 23:40:47: case.build success 
 ---------------------------------------------------
2022-04-07 00:16:01: case.build starting 
 ---------------------------------------------------
2022-04-07 00:18:14: case.build success 
 ---------------------------------------------------
2022-04-07 09:12:37: case.build starting 
 ---------------------------------------------------
2022-04-07 09:13:34: case.build error 
ERROR: BUILD FAIL: cam.buildlib failed, cat /data/chengxl/cesm/cimeoutput/FHIST_SH/bld/atm.bldlog.220407-091237
 ---------------------------------------------------
2022-04-07 09:15:41: case.build starting 
 ---------------------------------------------------
2022-04-07 09:18:21: case.build success 
 ---------------------------------------------------
2022-04-07 10:06:02: case.build starting 
 ---------------------------------------------------
2022-04-07 10:08:02: case.build success 
 ---------------------------------------------------
2022-04-11 14:03:08: case.build starting 
 ---------------------------------------------------
2022-04-11 14:06:20: case.build success 
 ---------------------------------------------------
2022-04-12 11:23:04: case.build starting 
 ---------------------------------------------------
2022-04-12 11:25:20: case.build success 
 ---------------------------------------------------
2022-04-13 09:56:03: case.build starting 
 ---------------------------------------------------
2022-04-13 09:58:48: case.build success 
 ---------------------------------------------------
2022-04-13 10:30:41: case.build starting 
 ---------------------------------------------------
2022-04-13 10:32:09: case.build success 
 ---------------------------------------------------
2022-04-13 10:55:46: case.build starting 
 ---------------------------------------------------
2022-04-13 10:56:38: case.build error 
ERROR: BUILD FAIL: cam.buildlib failed, cat /data/chengxl/cesm/cimeoutput/FHIST_SH/bld/atm.bldlog.220413-105547
 ---------------------------------------------------
2022-04-13 10:58:30: case.build starting 
 ---------------------------------------------------
2022-04-13 10:59:23: case.build error 
ERROR: BUILD FAIL: cam.buildlib failed, cat /data/chengxl/cesm/cimeoutput/FHIST_SH/bld/atm.bldlog.220413-105831
 ---------------------------------------------------
2022-04-13 11:04:13: case.build starting 
 ---------------------------------------------------
2022-04-13 11:05:43: case.build success 
 ---------------------------------------------------
2022-04-13 12:35:19: case.build starting 
 ---------------------------------------------------
2022-04-13 12:37:39: case.build success 
 ---------------------------------------------------
2022-04-14 14:21:48: case.build starting 
 ---------------------------------------------------
2022-04-14 14:22:51: case.build error 
ERROR: BUILD FAIL: cam.buildlib failed, cat /data/chengxl/cesm/cimeoutput/FHIST_SH/bld/atm.bldlog.220414-142149
 ---------------------------------------------------
2022-04-14 14:26:27: case.build starting 
 ---------------------------------------------------
2022-04-14 14:27:26: case.build error 
ERROR: BUILD FAIL: cam.buildlib failed, cat /data/chengxl/cesm/cimeoutput/FHIST_SH/bld/atm.bldlog.220414-142628
 ---------------------------------------------------
2022-04-14 14:48:08: case.build starting 
 ---------------------------------------------------
2022-04-14 14:49:11: case.build error 
ERROR: BUILD FAIL: cam.buildlib failed, cat /data/chengxl/cesm/cimeoutput/FHIST_SH/bld/atm.bldlog.220414-144809
 ---------------------------------------------------
2022-04-14 14:54:58: case.build starting 
 ---------------------------------------------------
2022-04-14 14:55:54: case.build error 
ERROR: BUILD FAIL: cam.buildlib failed, cat /data/chengxl/cesm/cimeoutput/FHIST_SH/bld/atm.bldlog.220414-145458
 ---------------------------------------------------
2022-04-14 14:58:11: case.build starting 
 ---------------------------------------------------
2022-04-14 15:00:18: case.build success 
 ---------------------------------------------------
2022-04-14 15:27:37: case.build starting 
 ---------------------------------------------------
2022-04-14 15:29:55: case.build success 
 ---------------------------------------------------
2022-04-14 15:41:09: case.build starting 
 ---------------------------------------------------
2022-04-14 15:42:56: case.build success 
 ---------------------------------------------------
2022-04-14 16:05:42: case.build starting 
 ---------------------------------------------------
2022-04-14 16:08:21: case.build success 
 ---------------------------------------------------
2022-04-14 16:21:10: case.build starting 
 ---------------------------------------------------
2022-04-14 16:23:51: case.build success 
 ---------------------------------------------------
2022-04-14 17:07:57: case.build starting 
 ---------------------------------------------------
2022-04-14 17:10:31: case.build success 
 ---------------------------------------------------
2022-04-14 17:27:25: case.build starting 
 ---------------------------------------------------
2022-04-14 17:28:22: case.build error 
ERROR: BUILD FAIL: cam.buildlib failed, cat /data/chengxl/cesm/cimeoutput/FHIST_SH/bld/atm.bldlog.220414-172725
 ---------------------------------------------------
2022-04-14 17:29:35: case.build starting 
 ---------------------------------------------------
2022-04-14 17:31:26: case.build success 
 ---------------------------------------------------
2022-04-15 12:54:06: case.build starting 
 ---------------------------------------------------
2022-04-15 12:56:19: case.build success 
 ---------------------------------------------------
2022-04-15 13:44:37: case.build starting 
 ---------------------------------------------------
2022-04-15 13:46:45: case.build success 
 ---------------------------------------------------
2022-04-15 14:21:08: case.build starting 
 ---------------------------------------------------
2022-04-15 14:22:09: case.build error 
ERROR: BUILD FAIL: cam.buildlib failed, cat /data/chengxl/cesm/cimeoutput/FHIST_SH/bld/atm.bldlog.220415-142108
 ---------------------------------------------------
2022-04-15 14:26:57: case.build starting 
 ---------------------------------------------------
2022-04-15 14:28:55: case.build success 
 ---------------------------------------------------
2022-04-15 15:03:46: case.build starting 
 ---------------------------------------------------
2022-04-15 15:06:01: case.build success 
 ---------------------------------------------------
2022-04-15 15:38:01: case.build starting 
 ---------------------------------------------------
2022-04-15 15:39:01: case.build error 
ERROR: BUILD FAIL: cam.buildlib failed, cat /data/chengxl/cesm/cimeoutput/FHIST_SH/bld/atm.bldlog.220415-153802
 ---------------------------------------------------
2022-04-15 15:42:40: case.build starting 
 ---------------------------------------------------
2022-04-15 15:44:51: case.build success 
 ---------------------------------------------------
2022-04-15 16:17:47: case.build starting 
 ---------------------------------------------------
2022-04-15 16:21:53: case.build success 
 ---------------------------------------------------
2022-04-15 17:33:51: case.build starting 
 ---------------------------------------------------
2022-04-15 17:36:06: case.build success 
 ---------------------------------------------------
2022-04-15 17:54:37: case.build starting 
 ---------------------------------------------------
2022-04-15 17:56:27: case.build success 
 ---------------------------------------------------
2022-04-27 10:58:32: case.build starting 
 ---------------------------------------------------
2022-04-27 10:59:49: case.build error 
ERROR: BUILD FAIL: cam.buildlib failed, cat /data/chengxl/cesm/cimeoutput/FHIST_SH/bld/atm.bldlog.220427-105833
 ---------------------------------------------------
2022-04-27 11:02:31: case.build starting 
 ---------------------------------------------------
2022-04-27 11:03:42: case.build error 
ERROR: BUILD FAIL: cam.buildlib failed, cat /data/chengxl/cesm/cimeoutput/FHIST_SH/bld/atm.bldlog.220427-110232
 ---------------------------------------------------
2022-04-27 11:07:42: case.build starting 
 ---------------------------------------------------
2022-04-27 11:09:01: case.build error 
ERROR: BUILD FAIL: cam.buildlib failed, cat /data/chengxl/cesm/cimeoutput/FHIST_SH/bld/atm.bldlog.220427-110742
 ---------------------------------------------------
2022-04-27 11:14:32: case.build starting 
 ---------------------------------------------------
2022-04-27 11:15:44: case.build error 
ERROR: BUILD FAIL: cam.buildlib failed, cat /data/chengxl/cesm/cimeoutput/FHIST_SH/bld/atm.bldlog.220427-111433
 ---------------------------------------------------
2022-04-27 11:22:47: case.build starting 
 ---------------------------------------------------
2022-04-27 11:23:58: case.build error 
ERROR: BUILD FAIL: cam.buildlib failed, cat /data/chengxl/cesm/cimeoutput/FHIST_SH/bld/atm.bldlog.220427-112247
 ---------------------------------------------------
2022-04-27 11:29:41: case.build starting 
 ---------------------------------------------------
2022-04-27 11:30:51: case.build error 
ERROR: BUILD FAIL: cam.buildlib failed, cat /data/chengxl/cesm/cimeoutput/FHIST_SH/bld/atm.bldlog.220427-112942
 ---------------------------------------------------
2022-04-27 11:38:37: case.build starting 
 ---------------------------------------------------
2022-04-27 11:40:07: case.build error 
ERROR: BUILD FAIL: cam.buildlib failed, cat /data/chengxl/cesm/cimeoutput/FHIST_SH/bld/atm.bldlog.220427-113837
 ---------------------------------------------------
2022-04-27 11:45:27: case.build starting 
 ---------------------------------------------------