2021-12-31 12:30:14: xmlchange success <command> ./xmlchange --force ROF_NCPL=$ATM_NCPL  </command>
 ---------------------------------------------------
2021-12-31 12:30:19: case.setup starting 
 ---------------------------------------------------
2021-12-31 12:30:19: case.setup error 
ERROR: inputdata root is not a directory or is not readable: ${HOME}/cesm/inputdata
 ---------------------------------------------------
