2021-12-31 12:30:37: xmlchange success <command> ./xmlchange --force POP_TAVG_R8=TRUE  </command>
 ---------------------------------------------------
2021-12-31 12:30:43: case.setup starting 
 ---------------------------------------------------
2021-12-31 12:30:43: case.setup error 
ERROR: inputdata root is not a directory or is not readable: ${HOME}/cesm/inputdata
 ---------------------------------------------------
